Version 4
SHEET 1 1180 680
WIRE 704 192 528 192
WIRE 848 192 704 192
WIRE 1040 192 912 192
WIRE 400 224 304 224
WIRE 576 224 528 224
WIRE 624 224 576 224
WIRE 64 256 -16 256
WIRE 400 256 64 256
WIRE 704 272 704 192
WIRE 304 288 304 224
WIRE 400 288 304 288
WIRE 304 384 304 288
FLAG 304 384 0
FLAG 704 416 0
FLAG 64 336 0
FLAG 624 224 VCC
IOPIN 624 224 In
FLAG -96 256 Vinput
IOPIN -96 256 In
FLAG 1040 192 Vout
IOPIN 1040 192 Out
FLAG 576 288 0
SYMBOL AutoGenerated\\LM386 464 240 R0
SYMATTR InstName U1
SYMBOL cap 688 272 R0
SYMATTR InstName C1
SYMATTR Value 0.05µF
SYMBOL res 688 320 R0
SYMATTR InstName R1
SYMATTR Value 10
SYMBOL cap 912 176 R90
WINDOW 0 0 32 VBottom 2
WINDOW 3 32 32 VTop 2
SYMATTR InstName C2
SYMATTR Value 250µF
SYMBOL res 48 240 R0
SYMATTR InstName R3
SYMATTR Value 1k
SYMBOL cap 560 224 R0
SYMATTR InstName C3
SYMATTR Value 10µ
SYMBOL res 0 240 R90
WINDOW 0 0 56 VBottom 2
WINDOW 3 32 56 VTop 2
SYMATTR InstName R2
SYMATTR Value 10k
TEXT -136 -312 Left 2 !.lib C:\\Users\\watts\\Documents\\LTspiceXVII\\microelectronics_2\\LM386.cir
