Version 4
SHEET 1 1116 680
SYMBOL OpAmps\\opamp2 96 304 R0
SYMATTR InstName U1
SYMATTR Value LM358
TEXT 16 48 Left 2 ;Transimpedance Amplifier Draft
TEXT 448 128 Left 2 !.lib C:\\Users\\Jacob\\Documents\\ltspice-git\\lib\\LM358.lib
