**************************************
*      Model Generated by MODPEX     *
*Copyright(c) Symmetry Design Systems*
*         All Rights Reserved        *
*    UNPUBLISHED LICENSED SOFTWARE   *
*   Contains Proprietary Information *
*      Which is The Property of      *
*     SYMMETRY OR ITS LICENSORS      *
*    Modeling services provided by   *
* Interface Technologies www.i-t.com *
**************************************
.MODEL Qd44h11 npn
+IS=6.99994e-12 BF=91.0001 NF=1.04634 VAF=40.7259
+IKF=10 ISE=7e-11 NE=3 BR=1.97064
+NR=1.50008 VAR=22.902 IKR=35.9467 ISC=4.75e-12
+NC=3.59375 RB=4 IRB=0.1 RBM=0.1
+RE=0.0001 RC=0.130733 XTB=0.337319 XTI=1.40625
+EG=1.13125 CJE=1.03578e-09 VJE=0.651779 MJE=0.35303
+TF=3.07008e-09 XTF=1.35721 VTF=0.995654 ITF=1
+CJC=3.98764e-10 VJC=0.429208 MJC=0.35114 XCJC=0.803125
+FC=0.533449 CJS=0 VJS=0.75 MJS=0.5
+TR=4.30593e-07 PTF=0 KF=0 AF=1
* Model generated on Mar  1, 2004
* Model format: PSpice
