**************************************
*      Model Generated by MODPEX     *
*Copyright(c) Symmetry Design Systems*
*         All Rights Reserved        *
*    UNPUBLISHED LICENSED SOFTWARE   *
*   Contains Proprietary Information *
*      Which is The Property of      *
*     SYMMETRY OR ITS LICENSORS      *
*    Modeling services provided by   *
* Interface Technologies www.i-t.com *
**************************************
.MODEL Qd45h11 pnp
+IS=7.89979e-11 BF=65.9745 NF=0.851012 VAF=10.7084
+IKF=10 ISE=4.79702e-14 NE=4 BR=1.96197
+NR=1.29503 VAR=23.2874 IKR=9.99625 ISC=4.79702e-14
+NC=3.59375 RB=2.35587 IRB=0.108633 RBM=0.101928
+RE=0.000100027 RC=0.122304 XTB=0.137608 XTI=1.0316
+EG=1.12218 CJE=1.03083e-09 VJE=0.651747 MJE=0.353069
+TF=3.89762e-09 XTF=1.35721 VTF=0.99569 ITF=0.999994
+CJC=5e-10 VJC=0.42654 MJC=0.24282 XCJC=0.803125
+FC=0.533457 CJS=0 VJS=0.75 MJS=0.5
+TR=4.90984e-07 PTF=0 KF=0 AF=1
* Model generated on Dec 26, 2003
* Model format: PSpice
