**************************************
*      Model Generated by MODPEX     *
*Copyright(c) Symmetry Design Systems*
*         All Rights Reserved        *
*    UNPUBLISHED LICENSED SOFTWARE   *
*   Contains Proprietary Information *
*      Which is The Property of      *
*     SYMMETRY OR ITS LICENSORS      *
*    Modeling services provided by   *
* Interface Technologies www.i-t.com *
**************************************
.MODEL Qmj15003 npn
+IS=1e-09 BF=226.431 NF=0.85 VAF=43.4348
+IKF=10 ISE=1e-08 NE=1.79698 BR=1.65466
+NR=1.5 VAR=434.348 IKR=4.42319 ISC=5.49997e-09
+NC=3.18751 RB=43.922 IRB=0.1 RBM=0.1
+RE=0.0001 RC=0.20765 XTB=0.746102 XTI=1
+EG=1.05 CJE=9.62276e-08 VJE=0.505131 MJE=0.650363
+TF=9.99972e-09 XTF=1.35733 VTF=0.996711 ITF=0.999802
+CJC=1.22855e-09 VJC=0.95 MJC=0.23 XCJC=0.803115
+FC=0.638728 CJS=0 VJS=0.75 MJS=0.5
+TR=1e-07 PTF=0 KF=0 AF=1
* Model generated on Jan 15, 2004
* Model format: PSpice
